#
# Generated by PyRED version APR-2018
#     http://q4md-forcefieldtools.org
#
@<TRIPOS>MOLECULE
EAH_0
    10     9     1     0     1
SMALL
USER_CHARGES
@<TRIPOS>ATOM
   1 C1     0.599598  -0.522948  -0.000000 CT   1   EAH  0.0974  0.0000 ****
   2 H1     0.491414  -1.157345   0.875595 HC   1   EAH  0.0293  0.0000 ****
   3 H2     0.491415  -1.157345  -0.875596 HC   1   EAH  0.0293  0.0000 ****
   4 C2    -0.493383   0.536879  -0.000000 CT   1   EAH  0.0304  0.0000 ****
   5 H3    -0.460883   1.162394   0.880168 HP   1   EAH  0.1095  0.0000 ****
   6 H4    -0.460883   1.162394  -0.880168 HP   1   EAH  0.1095  0.0000 ****
   7 N1    -1.864735  -0.116732   0.000000 N3   1   EAH -0.4425  0.0000 ****
   8 H8    -2.609762   0.567154   0.000000 H    1   EAH  0.3457  0.0000 ****
   9 H9    -1.992618  -0.703117  -0.813753 H    1   EAH  0.3457  0.0000 ****
  10 H10   -1.992617  -0.703117   0.813754 H    1   EAH  0.3457  0.0000 ****
@<TRIPOS>BOND
    1     1     2 1
    2     1     3 1
    3     1     4 1
    4     4     5 1
    5     4     6 1
    6     4     7 1
    7     7     8 1
    8     7     9 1
    9     7    10 1
@<TRIPOS>SUBSTRUCTURE
      1 EAH               1 ****               0 ****  ****
@<TRIPOS>HEADTAIL
C1 1
0 0
@<TRIPOS>RESIDUECONNECT
1 C1 0 0 0 0 0
