#
# Generated by PyRED version APR-2018
#     http://q4md-forcefieldtools.org
#
@<TRIPOS>MOLECULE
PEG_0
     7     6     1     0     1
SMALL
USER_CHARGES
@<TRIPOS>ATOM
   1 C1     1.180434   0.538368  -0.000003 CT   1   PEG -0.0036  0.0000 ****
   2 H1     1.146200   1.185000  -0.871449 HC   1   PEG  0.0060  0.0000 ****
   3 H2     1.146202   1.185011   0.871436 HC   1   PEG  0.0060  0.0000 ****
   4 C2    -0.061516  -0.335865   0.000002 CT   1   PEG  0.0581  0.0000 ****
   5 H3    -0.068820  -0.983584  -0.877671 H1   1   PEG  0.0505  0.0000 ****
   6 H4    -0.068815  -0.983577   0.877681 H1   1   PEG  0.0505  0.0000 ****
   7 O1    -1.190207   0.485282   0.000005 OS   1   PEG -0.1675  0.0000 ****
@<TRIPOS>BOND
    1     1     2 1
    2     1     3 1
    3     1     4 1
    4     4     5 1
    5     4     6 1
    6     4     7 1
@<TRIPOS>SUBSTRUCTURE
      1 PEG               1 ****               0 ****  ****
@<TRIPOS>HEADTAIL
C1 1
O1 1
@<TRIPOS>RESIDUECONNECT
1 C1 O1 0 0 0 0
